# DIS package for  MODFLOW-2005, generated by Flopy.
         3        12        11        13         4         2
  0  0  0
CONSTANT    1.000000E+03                           #delr                          
CONSTANT    5.000000E+02                           #delc                          
CONSTANT    2.000000E+02                           #model_top                     
CONSTANT    1.800000E+02                           #botm layer 1                  
CONSTANT    1.700000E+02                           #botm layer 2                  
CONSTANT    8.000000E+01                           #botm layer 3                  
      1.000000             1  1.000000  SS 
     30.000000             1  1.000000  TR 
     28.000000             1  1.000000  TR 
     31.000000             1  1.000000  TR 
     30.000000             1  1.000000  TR 
     31.000000             1  1.000000  TR 
     30.000000             1  1.000000  TR 
     31.000000             1  1.000000  TR 
     31.000000             1  1.000000  TR 
     30.000000             1  1.000000  TR 
     31.000000             1  1.000000  TR 
     30.000000             1  1.000000  TR 
     31.000000             1  1.000000  TR 
