# CHD package for  MODFLOW-2005, generated by Flopy.
        72
        72         0 # stress period 1
         1         1         1           195.0           195.0
         1         2         1           195.0           195.0
         1         3         1           195.0           195.0
         1         4         1           195.0           195.0
         1         5         1           195.0           195.0
         1         6         1           195.0           195.0
         1         7         1           195.0           195.0
         1         8         1           195.0           195.0
         1         9         1           195.0           195.0
         1        10         1           195.0           195.0
         1        11         1           195.0           195.0
         1        12         1           195.0           195.0
         1         1        11           190.0           190.0
         1         2        11           190.0           190.0
         1         3        11           190.0           190.0
         1         4        11           190.0           190.0
         1         5        11           190.0           190.0
         1         6        11           190.0           190.0
         1         7        11           190.0           190.0
         1         8        11           190.0           190.0
         1         9        11           190.0           190.0
         1        10        11           190.0           190.0
         1        11        11           190.0           190.0
         1        12        11           190.0           190.0
         2         1         1           195.0           195.0
         2         2         1           195.0           195.0
         2         3         1           195.0           195.0
         2         4         1           195.0           195.0
         2         5         1           195.0           195.0
         2         6         1           195.0           195.0
         2         7         1           195.0           195.0
         2         8         1           195.0           195.0
         2         9         1           195.0           195.0
         2        10         1           195.0           195.0
         2        11         1           195.0           195.0
         2        12         1           195.0           195.0
         2         1        11           190.0           190.0
         2         2        11           190.0           190.0
         2         3        11           190.0           190.0
         2         4        11           190.0           190.0
         2         5        11           190.0           190.0
         2         6        11           190.0           190.0
         2         7        11           190.0           190.0
         2         8        11           190.0           190.0
         2         9        11           190.0           190.0
         2        10        11           190.0           190.0
         2        11        11           190.0           190.0
         2        12        11           190.0           190.0
         3         1         1           195.0           195.0
         3         2         1           195.0           195.0
         3         3         1           195.0           195.0
         3         4         1           195.0           195.0
         3         5         1           195.0           195.0
         3         6         1           195.0           195.0
         3         7         1           195.0           195.0
         3         8         1           195.0           195.0
         3         9         1           195.0           195.0
         3        10         1           195.0           195.0
         3        11         1           195.0           195.0
         3        12         1           195.0           195.0
         3         1        11           190.0           190.0
         3         2        11           190.0           190.0
         3         3        11           190.0           190.0
         3         4        11           190.0           190.0
         3         5        11           190.0           190.0
         3         6        11           190.0           190.0
         3         7        11           190.0           190.0
         3         8        11           190.0           190.0
         3         9        11           190.0           190.0
         3        10        11           190.0           190.0
         3        11        11           190.0           190.0
         3        12        11           190.0           190.0
        -1         0 # stress period 2
        -1         0 # stress period 3
        -1         0 # stress period 4
        -1         0 # stress period 5
        -1         0 # stress period 6
        -1         0 # stress period 7
        -1         0 # stress period 8
        -1         0 # stress period 9
        -1         0 # stress period 10
        -1         0 # stress period 11
        -1         0 # stress period 12
        -1         0 # stress period 13
