# BAS6 package for  MODFLOW-2005, generated by Flopy.
FREE
CONSTANT          1                                #ibound layer 1                
CONSTANT          1                                #ibound layer 2                
CONSTANT          1                                #ibound layer 3                
   -999.99
CONSTANT    2.000000E+02                           #strt layer 1                  
CONSTANT    2.000000E+02                           #strt layer 2                  
CONSTANT    2.000000E+02                           #strt layer 3                  
